data_image0
_chemical_formula_structural       O9Sr3Ti3
_chemical_formula_sum              "O9 Sr3 Ti3"
_cell_length_a       4.00796
_cell_length_b       7.99273
_cell_length_c       10.0088
_cell_angle_alpha    90.0203
_cell_angle_beta     89.9926
_cell_angle_gamma    90.0128

_space_group_name_H-M_alt    "P 1"
_space_group_IT_number       1

loop_
  _space_group_symop_operation_xyz
  'x, y, z'

loop_
  _atom_site_type_symbol
  _atom_site_label
  _atom_site_symmetry_multiplicity
  _atom_site_fract_x
  _atom_site_fract_y
  _atom_site_fract_z
  _atom_site_occupancy
  O   O1        1.0  0.49961  0.24069  0.60467  1.0000
  O   O2        1.0  0.99532  0.75895  0.79652  1.0000
  O   O3        1.0  0.50601  0.50025  0.79980  1.0000
  O   O4        1.0  0.50679  0.24972  0.00159  1.0000
  O   O5        1.0  0.50011  0.50082  0.19305  1.0000
  O   O6        1.0  0.99973  0.49990  0.19550  1.0000
  O   O7        1.0  0.00030  0.24154  0.60207  1.0000
  O   O8        1.0  0.50033  0.23816  0.39655  1.0000
  O   O9        1.0  0.49982  0.50707  0.40449  1.0000
  Sr  Sr1       1.0  0.25021  0.86803  0.49591  1.0000
  Sr  Sr2       1.0  0.24454  0.12589  0.89844  1.0000
  Sr  Sr3       1.0  0.24932  0.62188  0.90503  1.0000
  Ti  Ti1       1.0  0.74975  0.87029  0.70267  1.0000
  Ti  Ti2       1.0  0.74764  0.37946  0.10682  1.0000
  Ti  Ti3       1.0  0.25053  0.14734  0.49690  1.0000
