data_image0
_chemical_formula_structural       O9Sr3Ti3
_chemical_formula_sum              "O9 Sr3 Ti3"
_cell_length_a       4.00382
_cell_length_b       7.99633
_cell_length_c       10.0042
_cell_angle_alpha    90.0107
_cell_angle_beta     89.9957
_cell_angle_gamma    90.0063

_space_group_name_H-M_alt    "P 1"
_space_group_IT_number       1

loop_
  _space_group_symop_operation_xyz
  'x, y, z'

loop_
  _atom_site_type_symbol
  _atom_site_label
  _atom_site_symmetry_multiplicity
  _atom_site_fract_x
  _atom_site_fract_y
  _atom_site_fract_z
  _atom_site_occupancy
  O   O1        1.0  0.49961  0.24544  0.60223  1.0000
  O   O2        1.0  0.99722  0.75454  0.79815  1.0000
  O   O3        1.0  0.50292  0.50005  0.79991  1.0000
  O   O4        1.0  0.50323  0.24989  0.00075  1.0000
  O   O5        1.0  0.50030  0.50030  0.19651  1.0000
  O   O6        1.0  0.99968  0.49990  0.19775  1.0000
  O   O7        1.0  0.00038  0.24583  0.60096  1.0000
  O   O8        1.0  0.49976  0.24402  0.39849  1.0000
  O   O9        1.0  0.49993  0.50349  0.40217  1.0000
  Sr  Sr1       1.0  0.25010  0.87151  0.49804  1.0000
  Sr  Sr2       1.0  0.24733  0.12537  0.89924  1.0000
  Sr  Sr3       1.0  0.24991  0.62342  0.90250  1.0000
  Ti  Ti1       1.0  0.75014  0.87259  0.70142  1.0000
  Ti  Ti2       1.0  0.74889  0.37739  0.10346  1.0000
  Ti  Ti3       1.0  0.25059  0.13627  0.49843  1.0000
