data_image0
_chemical_formula_structural       O9Sr3Ti3
_chemical_formula_sum              "O9 Sr3 Ti3"
_cell_length_a       4.00942
_cell_length_b       7.99154
_cell_length_c       10.0105
_cell_angle_alpha    90.0232
_cell_angle_beta     89.9919
_cell_angle_gamma    90.015

_space_group_name_H-M_alt    "P 1"
_space_group_IT_number       1

loop_
  _space_group_symop_operation_xyz
  'x, y, z'

loop_
  _atom_site_type_symbol
  _atom_site_label
  _atom_site_symmetry_multiplicity
  _atom_site_fract_x
  _atom_site_fract_y
  _atom_site_fract_z
  _atom_site_occupancy
  O   O1        1.0  0.49970  0.23907  0.60553  1.0000
  O   O2        1.0  0.99491  0.76038  0.79604  1.0000
  O   O3        1.0  0.50708  0.50036  0.79975  1.0000
  O   O4        1.0  0.50804  0.24965  0.00188  1.0000
  O   O5        1.0  0.49990  0.50106  0.19191  1.0000
  O   O6        1.0  0.99985  0.49994  0.19477  1.0000
  O   O7        1.0  0.00015  0.24008  0.60249  1.0000
  O   O8        1.0  0.50076  0.23625  0.39579  1.0000
  O   O9        1.0  0.49977  0.50829  0.40529  1.0000
  Sr  Sr1       1.0  0.25026  0.86687  0.49516  1.0000
  Sr  Sr2       1.0  0.24358  0.12611  0.89816  1.0000
  Sr  Sr3       1.0  0.24903  0.62137  0.90588  1.0000
  Ti  Ti1       1.0  0.74945  0.86957  0.70304  1.0000
  Ti  Ti2       1.0  0.74720  0.38005  0.10791  1.0000
  Ti  Ti3       1.0  0.25032  0.15097  0.49641  1.0000
